
**** 03/24/25 22:08:40 **** PSpice 23.1.0 (30 January 2024) *** ID# 0 ********

 ** Profile: "SCHEMATIC1-simulation"  [ \\Mac\Home\repo\M2SmartHome\hardware-electronics\Spice simulations\i2c_eeprom_ICP\i2c_eeprom_


 ****     CIRCUIT DESCRIPTION


******************************************************************************




** Creating circuit file "simulation.cir" 
** WARNING: THIS AUTOMATICALLY GENERATED FILE MAY BE OVERWRITTEN BY SUBSEQUENT SIMULATIONS

*Libraries: 
* Profile Libraries :
* Local Libraries :
* From [PSPICE NETLIST] section of C:\cds_spb_home\cdssetup\OrCAD_PSpiceTIPSpice_Install\23.1.0\PSpice.ini file:
.lib "nom_pspti.lib" 
.lib "nom.lib" 

*Analysis directives: 
.TRAN  0 100u 0 
.OPTIONS ADVCONV
.OPTIONS FILEMODELSEARCH
.PROBE64 V(alias(*)) I(alias(*)) W(alias(*)) D(alias(*)) NOISE(alias(*)) 
.INC "..\SCHEMATIC1.net" 



**** INCLUDING SCHEMATIC1.net ****
* source I2C_EEPROM_ICP
X_M1         SDA_MEM 3V3 SDA_IC BSS123/FAI
R_R1         SDA_MEM 3V3  4.7k TC=0,0 
R_R2         SDA_IC 3V3  4.7k TC=0,0 
V_V1         3V3 0 3.3Vdc
V_V2         SDA_IC 0 DC 0 AC 0
+PULSE 0 3.3 0 10n 10n 4.9800e-6 10u
V_V3         N15619 0 DC 0 AC 0
+PULSE 0 3.3 3u 10n 10n 4.9800e-6 10u
Q_Q1         SDA_MEM N15619 0 BC548B 

**** RESUMING simulation.cir ****
.END

**** 03/24/25 22:08:40 **** PSpice 23.1.0 (30 January 2024) *** ID# 0 ********

 ** Profile: "SCHEMATIC1-simulation"  [ \\Mac\Home\repo\M2SmartHome\hardware-electronics\Spice simulations\i2c_eeprom_ICP\i2c_eeprom_


 ****     INITIAL TRANSIENT SOLUTION       TEMPERATURE =   27.000 DEG C


******************************************************************************



 NODE   VOLTAGE     NODE   VOLTAGE     NODE   VOLTAGE     NODE   VOLTAGE


(  3V3)    3.3000  (N15619)    0.0000 (SDA_IC)    0.0000 (SDA_MEM)     .0026    




    VOLTAGE SOURCE CURRENTS
    NAME         CURRENT

    V_V1        -1.404E-03
    V_V2         1.404E-03
    V_V3         3.868E-15

    TOTAL POWER DISSIPATION   4.63E-03  WATTS

Reducing minimum delta to make the circuit converge.
Reducing minimum delta to make the circuit converge.

ERROR(ORPSIM-15138): Convergence problem in Transient Analysis at Time =  3.005E-06.
         Time step =  535.3E-21, minimum allowable step size =  1.000E-18

  These supply currents failed to converge:

    I(V_V3)                   =   -10.00GA  \    -9.79GA

  These devices failed to converge:
    X_M1.Dgd  Q_Q1      



  Last node voltages tried were:

 NODE   VOLTAGE     NODE   VOLTAGE     NODE   VOLTAGE     NODE   VOLTAGE


(  3V3)    3.3000  (N15619)    1.5913 (SDA_IC)    3.3000 (SDA_MEM)    2.6079    


**** Interrupt ****
